/*--------------------------------*- C++ -*----------------------------------*\
| =========                 |                                                 |
| \\      /  F ield         | OpenFOAM: The Open Source CFD Toolbox           |
|  \\    /   O peration     | Version:  v1906                                 |
|   \\  /    A nd           | Web:      www.OpenFOAM.com                      |
|    \\/     M anipulation  |                                                 |
\*---------------------------------------------------------------------------*/
FoamFile
{
    version     2.0;
    format      ascii;
    class       volScalarField;
    object      T;
}
// * * * * * * * * * * * * * * * * * * * * * * * * * * * * * * * * * * * * * //

dimensions      [0 0 0 1 0 0 0];

internalField   uniform 300;

boundaryField
{
    #includeEtc "caseDicts/setConstraintTypes"

    "(casing)"//|outlet|inlet)"
    {
        type            zeroGradient;
    }

    hole
    {
        type            fixedValue;
        value           uniform 300;
    }
    overset
    {
        type            overset;
    }
    
    inlet
    {
        type            fixedValue;
        value           uniform 300;
    }

    outlet
    {
        type            inletOutlet;
        // type            zeroGradient;
        value           uniform 300;
        inletValue      uniform 300;
    }
}

// ************************************************************************* //
