/*--------------------------------*- C++ -*----------------------------------*\
| =========                 |                                                 |
| \\      /  F ield         | OpenFOAM: The Open Source CFD Toolbox           |
|  \\    /   O peration     | Version:  2.0.1                                 |
|   \\  /    A nd           | Web:      www.OpenFOAM.com                      |
|    \\/     M anipulation  |                                                 |
\*---------------------------------------------------------------------------*/
FoamFile
{
    version     2.0;
    format      ascii;
    class       dictionary;
    location    "system";
    object      fvSchemes;
}
// * * * * * * * * * * * * * * * * * * * * * * * * * * * * * * * * * * * * * //

ddtSchemes
{
    default         Euler;//CrankNicolson 0.0;//
}

gradSchemes
{
    default         Gauss linear;
    grad(p)         Gauss linear;//cellLimited Gauss linear 1;//
    grad(U)         Gauss linear;
//     grad(U)         cellLimited Gauss linear 1;
//     grad(k)         cellLimited Gauss linear 1;
//     grad(epsilon)   cellLimited Gauss linear 1; 
}

divSchemes
{
    default         none;
    div(phi,U)      Gauss linear;//Gauss upwind;//
    div((nuEff*dev(T(grad(U))))) Gauss linear;
    div((nuEff*dev2(T(grad(U))))) Gauss linear;
}

laplacianSchemes
{
    default         none;
    laplacian(nu,U) Gauss linear uncorrected;//corrected;//
    laplacian(rAU,pcorr) Gauss linear uncorrected;//corrected;//
    laplacian(rAU,p) Gauss linear uncorrected;//corrected;//
    laplacian(diffusivity,cellMotionU) Gauss linear uncorrected;
    laplacian(nuEff,U) Gauss linear uncorrected;
    laplacian(rAUf,pcorr) Gauss linear uncorrected;
    laplacian((1|A(U)),p) Gauss linear uncorrected;
}

interpolationSchemes
{
    default         linear upwind;
    interpolate(HbyA) linear upwind;
}

snGradSchemes
{
    default         corrected;
}

fluxRequired
{
    default         no;
    pcorr           ;
    p               ;
}


// ************************************************************************* //
