/*--------------------------------*- C++ -*----------------------------------*\
| =========                 |                                                 |
| \\      /  F ield         | OpenFOAM: The Open Source CFD Toolbox           |
|  \\    /   O peration     | Version:  2.0.1                                 |
|   \\  /    A nd           | Web:      www.OpenFOAM.com                      |
|    \\/     M anipulation  |                                                 |
\*---------------------------------------------------------------------------*/
FoamFile
{
    version     2.0;
    format      ascii;
    class       dictionary;
    location    "system";
    object      fvSolution;
}
// * * * * * * * * * * * * * * * * * * * * * * * * * * * * * * * * * * * * * //

// solvers
// {
//     pcorr
//     {
//         solver          PCG;
//         preconditioner  DIC;
//         tolerance       0.02;
//         relTol          0;
// //         solver          GAMG;
// //         tolerance       1e-06;
// //         relTol          0.01;
// //         smoother        GaussSeidel;
//     }
// 
//     pcorrFinal
//     {
//         $pcorr;
//         tolerance       1e-06;
//         relTol          0;
//     }
// 
//     p
//     {
//         solver          PCG;
//         preconditioner  DIC;
//         tolerance       1e-06;
//         relTol          0.01;
// //         solver          GAMG;
// //         tolerance       1e-06;
// //         relTol          0;
// //         smoother        GaussSeidel;
//     }
// 
//     pFinal
//     {
//         $p;
//         tolerance       1e-06;
//         relTol          0;
//     }
// 
//     U
//     {
//         solver          PBiCG;
//         preconditioner  DILU;
//         tolerance       1e-05;
//         relTol          0.1;
// //         solver          GAMG;
// //         tolerance       1e-06;
// //         relTol          0;
// //         smoother        GaussSeidel;
//     }
// 
//     UFinal
//     {
//         $U;
//         tolerance       1e-05;
//         relTol          0;
//     }
// 
//     cellMotionU
//     {
//         solver          PCG;
//         preconditioner  DIC;
//         tolerance       1e-08;
//         relTol          0;
// //         solver          GAMG;
// //         tolerance       1e-06;
// //         relTol          0;
// //         smoother        GaussSeidel;
//     }
// }
// 
// PIMPLE
// {
//     correctPhi          yes;
//     nOuterCorrectors    2;//15;//
//     nCorrectors         1;
//     nNonOrthogonalCorrectors 0;
//     pRefCell        0;
//     pRefValue       0;
// }
// 
// // relaxationFactors
// // {
// //     "(p|U).*"           0.3;//1;
// // }
// relaxationFactors
// {
//     fields
//     {
//         p   0.3;
// //         epsilon 0.3;
//     }
//     equations
//     {
//         U   0.3;
//         p   0.3;//"(p|k|epsilon).*"   0.3;
//     }
// }
// ************************************************************************* //
solvers
{
    pcorr
    {
        solver          PBiCGStab;
        preconditioner  DIC;
        tolerance       1e-05;
        relTol          0.1;
//         solver          GAMG;
//         tolerance       1e-06;
//         relTol          0.01;
//         smoother        GaussSeidel;
    }

    pcorrFinal
    {
        $pcorr;
        tolerance       1e-06;
        relTol          0;
    }

    p
    {
        solver          PBiCGStab;
        preconditioner  DIC;
        tolerance       1e-05;
        relTol          0.1;
//         solver          GAMG;
//         tolerance       1e-06;
//         relTol          0;
//         smoother        GaussSeidel;
    }

    pFinal
    {
        $p;
        tolerance       1e-06;
        relTol          0;
    }

    U
    {
        solver          PBiCG;
        preconditioner  DILU;
        tolerance       1e-05;
        relTol          0.1;
//         solver          GAMG;
//         tolerance       1e-06;
//         relTol          0;
//         smoother        GaussSeidel;
    }

    UFinal
    {
        $U;
        tolerance       1e-05;
        relTol          0;
    }

    cellMotionU
    {
        solver          PCG;
        preconditioner  DIC;
        tolerance       1e-08;
        relTol          0;
//         solver          GAMG;
//         tolerance       1e-06;
//         relTol          0;
//         smoother        GaussSeidel;
    }
}

PIMPLE
{
    correctPhi          yes;
    nOuterCorrectors    15;//2;//
    nCorrectors         4;//1;
    nNonOrthogonalCorrectors 5;//0;
    pRefCell        0;
    pRefValue       0;
}

// relaxationFactors
// {
//     "(p|U).*"           0.3;//1;
// }
relaxationFactors
{
    fields
    {
        p   0.1;
//         epsilon 0.3;
    }
    equations
    {
        U   0.3;
        p   0.1;//"(p|k|epsilon).*"   0.3;
    }
}
